================================
Testing of indent function
================================

This module defines a text-indentation function ``text_indentation(text)``.

Testing
=======

    >>> text_indentation = __import__('5-text_indentation').text_indentation
    >>> text_indentation("Hello?")
    Hello?
    <BLANKLINE>

    <BLANKLINE>

    >>> text_indentation("          ")

    >>> text_indentation("Hello.   ")
    Hello.
    <BLANKLINE>

    >>> text_indentation("    Woah now.    This is messy.   ")
    Woah now.
    <BLANKLINE>
    This is messy.
    <BLANKLINE>


    >>> text_indentation("No ending period, what bad grammar")
    No ending period, what bad grammar

    >>> text_indentation("Let's print a new-line! Here goes:\nPrinted.")
    Let's print a new-line! Here goes:
    <BLANKLINE>
    <BLANKLINE>
    Printed.
    <BLANKLINE>

    >>> text_indentation("\n\n\n We just printed three new lines.")
    <BLANKLINE>
    <BLANKLINE>
    <BLANKLINE>
    We just printed three new lines.
    <BLANKLINE>

    >>> text_indentation("A sneaky \n new line.")
    A sneaky 
    new line.
    <BLANKLINE>

    >>> text_indentation(7)
    Traceback (most recent call last):
    TypeError: text must be a string

    >>> text_indentation({"one": 1, "two": 2})
    Traceback (most recent call last):
    TypeError: text must be a string
